# generated using pymatgen
data_Nb2SiC
_symmetry_space_group_name_H-M   'P 1'
_cell_length_a   3.16140186
_cell_length_b   3.16140169
_cell_length_c   13.01285696
_cell_angle_alpha   89.99997938
_cell_angle_beta   90.00000744
_cell_angle_gamma   119.99999874
_symmetry_Int_Tables_number   1
_chemical_formula_structural   Nb2SiC
_chemical_formula_sum   'Nb4 Si2 C2'
_cell_volume   112.63222903
_cell_formula_units_Z   2
loop_
 _symmetry_equiv_pos_site_id
 _symmetry_equiv_pos_as_xyz
  1  'x, y, z'
loop_
 _atom_site_type_symbol
 _atom_site_label
 _atom_site_symmetry_multiplicity
 _atom_site_fract_x
 _atom_site_fract_y
 _atom_site_fract_z
 _atom_site_occupancy
  Nb  Nb0  1  0.33333500  0.66666377  0.09498999  1
  Nb  Nb1  1  0.66666978  0.33332895  0.59498998  1
  Nb  Nb2  1  0.66666965  0.33333159  0.90501002  1
  Nb  Nb3  1  0.33333661  0.66666370  0.40501002  1
  Si  Si4  1  0.33333320  0.66666712  0.74999979  1
  Si  Si5  1  0.66666602  0.33333371  0.24999973  1
  C  C6  1  -0.00000460  0.00000402  0.00000031  1
  C  C7  1  -0.00000568  0.00000714  0.50000016  1
